<?xml version="1.0" encoding="UTF-8" standalone="yes"?>
<template encoding-version="1.3">
    <description>Dutch samples, Deduce, MedCAT, OpenSearch</description>
    <groupId>a4aa9a4e-0184-1000-8068-4aeab06f8310</groupId>
    <name>NL test flow</name>
    <snippet>
        <processGroups>
            <id>d4d03836-ace6-321f-0000-000000000000</id>
            <parentGroupId>2a98583a-6fb6-357f-0000-000000000000</parentGroupId>
            <position>
                <x>0.0</x>
                <y>0.0</y>
            </position>
            <comments></comments>
            <contents>
                <connections>
                    <id>02765419-5842-3d32-0000-000000000000</id>
                    <parentGroupId>d4d03836-ace6-321f-0000-000000000000</parentGroupId>
                    <versionedComponentId>3c66df8c-7f1a-3528-9cb9-3c09a83f99e6</versionedComponentId>
                    <backPressureDataSizeThreshold>100 MB</backPressureDataSizeThreshold>
                    <backPressureObjectThreshold>10000</backPressureObjectThreshold>
                    <bends>
                        <x>-550.51806640625</x>
                        <y>1758.0556030273438</y>
                    </bends>
                    <bends>
                        <x>-550.51806640625</x>
                        <y>1808.0556030273438</y>
                    </bends>
                    <destination>
                        <groupId>d4d03836-ace6-321f-0000-000000000000</groupId>
                        <id>0245a413-4ecd-3e53-0000-000000000000</id>
                        <type>PROCESSOR</type>
                        <versionedComponentId>ff5bd1a9-cd28-36df-9146-5a70fce68ecc</versionedComponentId>
                    </destination>
                    <flowFileExpiration>0 sec</flowFileExpiration>
                    <labelIndex>1</labelIndex>
                    <loadBalanceCompression>DO_NOT_COMPRESS</loadBalanceCompression>
                    <loadBalancePartitionAttribute></loadBalancePartitionAttribute>
                    <loadBalanceStatus>LOAD_BALANCE_NOT_CONFIGURED</loadBalanceStatus>
                    <loadBalanceStrategy>DO_NOT_LOAD_BALANCE</loadBalanceStrategy>
                    <name></name>
                    <selectedRelationships>failure</selectedRelationships>
                    <selectedRelationships>retry</selectedRelationships>
                    <source>
                        <groupId>d4d03836-ace6-321f-0000-000000000000</groupId>
                        <id>0245a413-4ecd-3e53-0000-000000000000</id>
                        <type>PROCESSOR</type>
                        <versionedComponentId>ff5bd1a9-cd28-36df-9146-5a70fce68ecc</versionedComponentId>
                    </source>
                    <zIndex>0</zIndex>
                </connections>
                <connections>
                    <id>0ca8df31-c750-385b-0000-000000000000</id>
                    <parentGroupId>d4d03836-ace6-321f-0000-000000000000</parentGroupId>
                    <versionedComponentId>f09d0cb6-2ca3-33da-8705-e5be5ba961aa</versionedComponentId>
                    <backPressureDataSizeThreshold>100 MB</backPressureDataSizeThreshold>
                    <backPressureObjectThreshold>10000</backPressureObjectThreshold>
                    <destination>
                        <groupId>d4d03836-ace6-321f-0000-000000000000</groupId>
                        <id>5e044c67-0c76-3fa0-0000-000000000000</id>
                        <type>PROCESSOR</type>
                        <versionedComponentId>78c47b60-91f8-3c32-a6ed-8fc249100623</versionedComponentId>
                    </destination>
                    <flowFileExpiration>0 sec</flowFileExpiration>
                    <labelIndex>1</labelIndex>
                    <loadBalanceCompression>DO_NOT_COMPRESS</loadBalanceCompression>
                    <loadBalancePartitionAttribute></loadBalancePartitionAttribute>
                    <loadBalanceStatus>LOAD_BALANCE_NOT_CONFIGURED</loadBalanceStatus>
                    <loadBalanceStrategy>DO_NOT_LOAD_BALANCE</loadBalanceStrategy>
                    <name></name>
                    <selectedRelationships>Response</selectedRelationships>
                    <source>
                        <groupId>d4d03836-ace6-321f-0000-000000000000</groupId>
                        <id>0d5f7c4a-db3f-3a54-0000-000000000000</id>
                        <type>PROCESSOR</type>
                        <versionedComponentId>ac365756-22b9-394c-aa1d-6ae110edcaca</versionedComponentId>
                    </source>
                    <zIndex>0</zIndex>
                </connections>
                <connections>
                    <id>10afe460-589e-3190-0000-000000000000</id>
                    <parentGroupId>d4d03836-ace6-321f-0000-000000000000</parentGroupId>
                    <versionedComponentId>2b8d988d-a099-3faf-82d3-1bb44472084d</versionedComponentId>
                    <backPressureDataSizeThreshold>100 MB</backPressureDataSizeThreshold>
                    <backPressureObjectThreshold>10000</backPressureObjectThreshold>
                    <destination>
                        <groupId>d4d03836-ace6-321f-0000-000000000000</groupId>
                        <id>bb9e9e8c-9b0f-3942-0000-000000000000</id>
                        <type>PROCESSOR</type>
                        <versionedComponentId>b7599c14-e594-3a72-a576-ede329309423</versionedComponentId>
                    </destination>
                    <flowFileExpiration>0 sec</flowFileExpiration>
                    <labelIndex>1</labelIndex>
                    <loadBalanceCompression>DO_NOT_COMPRESS</loadBalanceCompression>
                    <loadBalancePartitionAttribute></loadBalancePartitionAttribute>
                    <loadBalanceStatus>LOAD_BALANCE_NOT_CONFIGURED</loadBalanceStatus>
                    <loadBalanceStrategy>DO_NOT_LOAD_BALANCE</loadBalanceStrategy>
                    <name></name>
                    <selectedRelationships>success</selectedRelationships>
                    <source>
                        <groupId>d4d03836-ace6-321f-0000-000000000000</groupId>
                        <id>2a453ebf-c445-324a-0000-000000000000</id>
                        <type>PROCESSOR</type>
                        <versionedComponentId>ba209483-8036-3e7d-abef-1c53b0c886c2</versionedComponentId>
                    </source>
                    <zIndex>0</zIndex>
                </connections>
                <connections>
                    <id>31958157-9545-3526-0000-000000000000</id>
                    <parentGroupId>d4d03836-ace6-321f-0000-000000000000</parentGroupId>
                    <versionedComponentId>343a128d-bb85-3b93-ab74-d18fa6edba02</versionedComponentId>
                    <backPressureDataSizeThreshold>100 MB</backPressureDataSizeThreshold>
                    <backPressureObjectThreshold>10000</backPressureObjectThreshold>
                    <destination>
                        <groupId>d4d03836-ace6-321f-0000-000000000000</groupId>
                        <id>c89cc953-d7bb-357a-0000-000000000000</id>
                        <type>PROCESSOR</type>
                        <versionedComponentId>9688c8e1-64b3-3639-be4c-a12ccc04c9f7</versionedComponentId>
                    </destination>
                    <flowFileExpiration>0 sec</flowFileExpiration>
                    <labelIndex>1</labelIndex>
                    <loadBalanceCompression>DO_NOT_COMPRESS</loadBalanceCompression>
                    <loadBalancePartitionAttribute></loadBalancePartitionAttribute>
                    <loadBalanceStatus>LOAD_BALANCE_NOT_CONFIGURED</loadBalanceStatus>
                    <loadBalanceStrategy>DO_NOT_LOAD_BALANCE</loadBalanceStrategy>
                    <name></name>
                    <selectedRelationships>split</selectedRelationships>
                    <source>
                        <groupId>d4d03836-ace6-321f-0000-000000000000</groupId>
                        <id>9bef89ae-9d49-34ed-0000-000000000000</id>
                        <type>PROCESSOR</type>
                        <versionedComponentId>dd6d8219-6c15-3825-b12f-70d980c9d5c8</versionedComponentId>
                    </source>
                    <zIndex>0</zIndex>
                </connections>
                <connections>
                    <id>4300fdcc-19fc-3114-0000-000000000000</id>
                    <parentGroupId>d4d03836-ace6-321f-0000-000000000000</parentGroupId>
                    <versionedComponentId>5cb913fd-da33-33db-bf93-a71d133d1fec</versionedComponentId>
                    <backPressureDataSizeThreshold>100 MB</backPressureDataSizeThreshold>
                    <backPressureObjectThreshold>10000</backPressureObjectThreshold>
                    <destination>
                        <groupId>d4d03836-ace6-321f-0000-000000000000</groupId>
                        <id>13183c74-1d03-33d7-0000-000000000000</id>
                        <type>PROCESSOR</type>
                        <versionedComponentId>a6b3ac79-afe2-3787-942d-89f7382f2fe0</versionedComponentId>
                    </destination>
                    <flowFileExpiration>0 sec</flowFileExpiration>
                    <labelIndex>1</labelIndex>
                    <loadBalanceCompression>DO_NOT_COMPRESS</loadBalanceCompression>
                    <loadBalancePartitionAttribute></loadBalancePartitionAttribute>
                    <loadBalanceStatus>LOAD_BALANCE_NOT_CONFIGURED</loadBalanceStatus>
                    <loadBalanceStrategy>DO_NOT_LOAD_BALANCE</loadBalanceStrategy>
                    <name></name>
                    <selectedRelationships>Response</selectedRelationships>
                    <source>
                        <groupId>d4d03836-ace6-321f-0000-000000000000</groupId>
                        <id>0d5f7c4a-db3f-3a54-0000-000000000000</id>
                        <type>PROCESSOR</type>
                        <versionedComponentId>ac365756-22b9-394c-aa1d-6ae110edcaca</versionedComponentId>
                    </source>
                    <zIndex>0</zIndex>
                </connections>
                <connections>
                    <id>48046844-96fb-319f-0000-000000000000</id>
                    <parentGroupId>d4d03836-ace6-321f-0000-000000000000</parentGroupId>
                    <versionedComponentId>1b1d44b9-528e-3325-b233-33450965e65b</versionedComponentId>
                    <backPressureDataSizeThreshold>100 MB</backPressureDataSizeThreshold>
                    <backPressureObjectThreshold>10000</backPressureObjectThreshold>
                    <destination>
                        <groupId>d4d03836-ace6-321f-0000-000000000000</groupId>
                        <id>9bef89ae-9d49-34ed-0000-000000000000</id>
                        <type>PROCESSOR</type>
                        <versionedComponentId>dd6d8219-6c15-3825-b12f-70d980c9d5c8</versionedComponentId>
                    </destination>
                    <flowFileExpiration>0 sec</flowFileExpiration>
                    <labelIndex>1</labelIndex>
                    <loadBalanceCompression>DO_NOT_COMPRESS</loadBalanceCompression>
                    <loadBalancePartitionAttribute></loadBalancePartitionAttribute>
                    <loadBalanceStatus>LOAD_BALANCE_NOT_CONFIGURED</loadBalanceStatus>
                    <loadBalanceStrategy>DO_NOT_LOAD_BALANCE</loadBalanceStrategy>
                    <name></name>
                    <selectedRelationships>success</selectedRelationships>
                    <source>
                        <groupId>d4d03836-ace6-321f-0000-000000000000</groupId>
                        <id>139614a5-9d36-3cc2-0000-000000000000</id>
                        <type>PROCESSOR</type>
                        <versionedComponentId>e88d616c-93f3-359e-bbf7-f626a1d38658</versionedComponentId>
                    </source>
                    <zIndex>0</zIndex>
                </connections>
                <connections>
                    <id>5f88bb25-c392-321c-0000-000000000000</id>
                    <parentGroupId>d4d03836-ace6-321f-0000-000000000000</parentGroupId>
                    <versionedComponentId>8483932b-1e38-3fd2-b8ce-2eac1838831f</versionedComponentId>
                    <backPressureDataSizeThreshold>1 GB</backPressureDataSizeThreshold>
                    <backPressureObjectThreshold>10000</backPressureObjectThreshold>
                    <destination>
                        <groupId>d4d03836-ace6-321f-0000-000000000000</groupId>
                        <id>0245a413-4ecd-3e53-0000-000000000000</id>
                        <type>PROCESSOR</type>
                        <versionedComponentId>ff5bd1a9-cd28-36df-9146-5a70fce68ecc</versionedComponentId>
                    </destination>
                    <flowFileExpiration>0 sec</flowFileExpiration>
                    <labelIndex>1</labelIndex>
                    <loadBalanceCompression>DO_NOT_COMPRESS</loadBalanceCompression>
                    <loadBalancePartitionAttribute></loadBalancePartitionAttribute>
                    <loadBalanceStatus>LOAD_BALANCE_NOT_CONFIGURED</loadBalanceStatus>
                    <loadBalanceStrategy>DO_NOT_LOAD_BALANCE</loadBalanceStrategy>
                    <name></name>
                    <selectedRelationships>matched</selectedRelationships>
                    <source>
                        <groupId>d4d03836-ace6-321f-0000-000000000000</groupId>
                        <id>c89cc953-d7bb-357a-0000-000000000000</id>
                        <type>PROCESSOR</type>
                        <versionedComponentId>9688c8e1-64b3-3639-be4c-a12ccc04c9f7</versionedComponentId>
                    </source>
                    <zIndex>0</zIndex>
                </connections>
                <connections>
                    <id>61a91fb4-bf12-3c10-0000-000000000000</id>
                    <parentGroupId>d4d03836-ace6-321f-0000-000000000000</parentGroupId>
                    <versionedComponentId>9ca30443-a69e-3162-89b2-028d4b801493</versionedComponentId>
                    <backPressureDataSizeThreshold>100 MB</backPressureDataSizeThreshold>
                    <backPressureObjectThreshold>10000</backPressureObjectThreshold>
                    <destination>
                        <groupId>d4d03836-ace6-321f-0000-000000000000</groupId>
                        <id>9bef89ae-9d49-34ed-0000-000000000000</id>
                        <type>PROCESSOR</type>
                        <versionedComponentId>dd6d8219-6c15-3825-b12f-70d980c9d5c8</versionedComponentId>
                    </destination>
                    <flowFileExpiration>0 sec</flowFileExpiration>
                    <labelIndex>1</labelIndex>
                    <loadBalanceCompression>DO_NOT_COMPRESS</loadBalanceCompression>
                    <loadBalancePartitionAttribute></loadBalancePartitionAttribute>
                    <loadBalanceStatus>LOAD_BALANCE_NOT_CONFIGURED</loadBalanceStatus>
                    <loadBalanceStrategy>DO_NOT_LOAD_BALANCE</loadBalanceStrategy>
                    <name></name>
                    <selectedRelationships>success</selectedRelationships>
                    <source>
                        <groupId>d4d03836-ace6-321f-0000-000000000000</groupId>
                        <id>cb9d981c-dc12-383e-0000-000000000000</id>
                        <type>PROCESSOR</type>
                        <versionedComponentId>6735700a-dfd3-3ede-9c93-472f59cd593e</versionedComponentId>
                    </source>
                    <zIndex>0</zIndex>
                </connections>
                <connections>
                    <id>67a08460-f753-3a40-0000-000000000000</id>
                    <parentGroupId>d4d03836-ace6-321f-0000-000000000000</parentGroupId>
                    <versionedComponentId>009b78a7-b5e5-308d-8b82-5866591b0bbd</versionedComponentId>
                    <backPressureDataSizeThreshold>100 MB</backPressureDataSizeThreshold>
                    <backPressureObjectThreshold>10000</backPressureObjectThreshold>
                    <destination>
                        <groupId>d4d03836-ace6-321f-0000-000000000000</groupId>
                        <id>9bef89ae-9d49-34ed-0000-000000000000</id>
                        <type>PROCESSOR</type>
                        <versionedComponentId>dd6d8219-6c15-3825-b12f-70d980c9d5c8</versionedComponentId>
                    </destination>
                    <flowFileExpiration>0 sec</flowFileExpiration>
                    <labelIndex>1</labelIndex>
                    <loadBalanceCompression>DO_NOT_COMPRESS</loadBalanceCompression>
                    <loadBalancePartitionAttribute></loadBalancePartitionAttribute>
                    <loadBalanceStatus>LOAD_BALANCE_NOT_CONFIGURED</loadBalanceStatus>
                    <loadBalanceStrategy>DO_NOT_LOAD_BALANCE</loadBalanceStrategy>
                    <name></name>
                    <selectedRelationships>success</selectedRelationships>
                    <source>
                        <groupId>d4d03836-ace6-321f-0000-000000000000</groupId>
                        <id>5e044c67-0c76-3fa0-0000-000000000000</id>
                        <type>PROCESSOR</type>
                        <versionedComponentId>78c47b60-91f8-3c32-a6ed-8fc249100623</versionedComponentId>
                    </source>
                    <zIndex>0</zIndex>
                </connections>
                <connections>
                    <id>6f4b4b2e-40fd-36d1-0000-000000000000</id>
                    <parentGroupId>d4d03836-ace6-321f-0000-000000000000</parentGroupId>
                    <versionedComponentId>14812af2-a713-3f6b-be69-2f31e3820cb0</versionedComponentId>
                    <backPressureDataSizeThreshold>100 MB</backPressureDataSizeThreshold>
                    <backPressureObjectThreshold>10000</backPressureObjectThreshold>
                    <destination>
                        <groupId>d4d03836-ace6-321f-0000-000000000000</groupId>
                        <id>83e64d43-1a8b-374e-0000-000000000000</id>
                        <type>PROCESSOR</type>
                        <versionedComponentId>06a22c1f-b8e2-3dba-a49b-ab6bc8ec9ff4</versionedComponentId>
                    </destination>
                    <flowFileExpiration>0 sec</flowFileExpiration>
                    <labelIndex>1</labelIndex>
                    <loadBalanceCompression>DO_NOT_COMPRESS</loadBalanceCompression>
                    <loadBalancePartitionAttribute></loadBalancePartitionAttribute>
                    <loadBalanceStatus>LOAD_BALANCE_NOT_CONFIGURED</loadBalanceStatus>
                    <loadBalanceStrategy>DO_NOT_LOAD_BALANCE</loadBalanceStrategy>
                    <name></name>
                    <selectedRelationships>success</selectedRelationships>
                    <source>
                        <groupId>d4d03836-ace6-321f-0000-000000000000</groupId>
                        <id>13183c74-1d03-33d7-0000-000000000000</id>
                        <type>PROCESSOR</type>
                        <versionedComponentId>a6b3ac79-afe2-3787-942d-89f7382f2fe0</versionedComponentId>
                    </source>
                    <zIndex>0</zIndex>
                </connections>
                <connections>
                    <id>8f71b4cb-667f-30cd-0000-000000000000</id>
                    <parentGroupId>d4d03836-ace6-321f-0000-000000000000</parentGroupId>
                    <versionedComponentId>d00bb4fd-4d15-3faf-b8dd-c78dfad52aa4</versionedComponentId>
                    <backPressureDataSizeThreshold>1 GB</backPressureDataSizeThreshold>
                    <backPressureObjectThreshold>10000</backPressureObjectThreshold>
                    <destination>
                        <groupId>d4d03836-ace6-321f-0000-000000000000</groupId>
                        <id>cb9d981c-dc12-383e-0000-000000000000</id>
                        <type>PROCESSOR</type>
                        <versionedComponentId>6735700a-dfd3-3ede-9c93-472f59cd593e</versionedComponentId>
                    </destination>
                    <flowFileExpiration>0 sec</flowFileExpiration>
                    <labelIndex>1</labelIndex>
                    <loadBalanceCompression>DO_NOT_COMPRESS</loadBalanceCompression>
                    <loadBalancePartitionAttribute></loadBalancePartitionAttribute>
                    <loadBalanceStatus>LOAD_BALANCE_NOT_CONFIGURED</loadBalanceStatus>
                    <loadBalanceStrategy>DO_NOT_LOAD_BALANCE</loadBalanceStrategy>
                    <name></name>
                    <selectedRelationships>Response</selectedRelationships>
                    <source>
                        <groupId>d4d03836-ace6-321f-0000-000000000000</groupId>
                        <id>83e64d43-1a8b-374e-0000-000000000000</id>
                        <type>PROCESSOR</type>
                        <versionedComponentId>06a22c1f-b8e2-3dba-a49b-ab6bc8ec9ff4</versionedComponentId>
                    </source>
                    <zIndex>0</zIndex>
                </connections>
                <connections>
                    <id>a15ad892-f4f9-31a5-0000-000000000000</id>
                    <parentGroupId>d4d03836-ace6-321f-0000-000000000000</parentGroupId>
                    <versionedComponentId>dd44b28e-64f6-32fe-940c-85be7a459e17</versionedComponentId>
                    <backPressureDataSizeThreshold>100 MB</backPressureDataSizeThreshold>
                    <backPressureObjectThreshold>10000</backPressureObjectThreshold>
                    <bends>
                        <x>14.643325805664062</x>
                        <y>817.761474609375</y>
                    </bends>
                    <bends>
                        <x>14.643325805664062</x>
                        <y>867.761474609375</y>
                    </bends>
                    <destination>
                        <groupId>d4d03836-ace6-321f-0000-000000000000</groupId>
                        <id>0d5f7c4a-db3f-3a54-0000-000000000000</id>
                        <type>PROCESSOR</type>
                        <versionedComponentId>ac365756-22b9-394c-aa1d-6ae110edcaca</versionedComponentId>
                    </destination>
                    <flowFileExpiration>0 sec</flowFileExpiration>
                    <labelIndex>1</labelIndex>
                    <loadBalanceCompression>DO_NOT_COMPRESS</loadBalanceCompression>
                    <loadBalancePartitionAttribute></loadBalancePartitionAttribute>
                    <loadBalanceStatus>LOAD_BALANCE_NOT_CONFIGURED</loadBalanceStatus>
                    <loadBalanceStrategy>DO_NOT_LOAD_BALANCE</loadBalanceStrategy>
                    <name></name>
                    <selectedRelationships>Failure</selectedRelationships>
                    <selectedRelationships>Retry</selectedRelationships>
                    <source>
                        <groupId>d4d03836-ace6-321f-0000-000000000000</groupId>
                        <id>0d5f7c4a-db3f-3a54-0000-000000000000</id>
                        <type>PROCESSOR</type>
                        <versionedComponentId>ac365756-22b9-394c-aa1d-6ae110edcaca</versionedComponentId>
                    </source>
                    <zIndex>0</zIndex>
                </connections>
                <connections>
                    <id>c8cf9366-c93b-3ac7-0000-000000000000</id>
                    <parentGroupId>d4d03836-ace6-321f-0000-000000000000</parentGroupId>
                    <versionedComponentId>3cbfe194-0004-3f57-a8ab-8df928358758</versionedComponentId>
                    <backPressureDataSizeThreshold>100 MB</backPressureDataSizeThreshold>
                    <backPressureObjectThreshold>10000</backPressureObjectThreshold>
                    <destination>
                        <groupId>d4d03836-ace6-321f-0000-000000000000</groupId>
                        <id>0d5f7c4a-db3f-3a54-0000-000000000000</id>
                        <type>PROCESSOR</type>
                        <versionedComponentId>ac365756-22b9-394c-aa1d-6ae110edcaca</versionedComponentId>
                    </destination>
                    <flowFileExpiration>0 sec</flowFileExpiration>
                    <labelIndex>1</labelIndex>
                    <loadBalanceCompression>DO_NOT_COMPRESS</loadBalanceCompression>
                    <loadBalancePartitionAttribute></loadBalancePartitionAttribute>
                    <loadBalanceStatus>LOAD_BALANCE_NOT_CONFIGURED</loadBalanceStatus>
                    <loadBalanceStrategy>DO_NOT_LOAD_BALANCE</loadBalanceStrategy>
                    <name></name>
                    <selectedRelationships>success</selectedRelationships>
                    <source>
                        <groupId>d4d03836-ace6-321f-0000-000000000000</groupId>
                        <id>bb9e9e8c-9b0f-3942-0000-000000000000</id>
                        <type>PROCESSOR</type>
                        <versionedComponentId>b7599c14-e594-3a72-a576-ede329309423</versionedComponentId>
                    </source>
                    <zIndex>0</zIndex>
                </connections>
                <connections>
                    <id>e5bd0c5d-87ed-303f-0000-000000000000</id>
                    <parentGroupId>d4d03836-ace6-321f-0000-000000000000</parentGroupId>
                    <versionedComponentId>81b5df95-63b0-36e5-a881-60010e95b721</versionedComponentId>
                    <backPressureDataSizeThreshold>100 MB</backPressureDataSizeThreshold>
                    <backPressureObjectThreshold>10000</backPressureObjectThreshold>
                    <bends>
                        <x>626.0794982910156</x>
                        <y>811.2265625</y>
                    </bends>
                    <bends>
                        <x>626.0794982910156</x>
                        <y>861.2265625</y>
                    </bends>
                    <destination>
                        <groupId>d4d03836-ace6-321f-0000-000000000000</groupId>
                        <id>83e64d43-1a8b-374e-0000-000000000000</id>
                        <type>PROCESSOR</type>
                        <versionedComponentId>06a22c1f-b8e2-3dba-a49b-ab6bc8ec9ff4</versionedComponentId>
                    </destination>
                    <flowFileExpiration>0 sec</flowFileExpiration>
                    <labelIndex>1</labelIndex>
                    <loadBalanceCompression>DO_NOT_COMPRESS</loadBalanceCompression>
                    <loadBalancePartitionAttribute></loadBalancePartitionAttribute>
                    <loadBalanceStatus>LOAD_BALANCE_NOT_CONFIGURED</loadBalanceStatus>
                    <loadBalanceStrategy>DO_NOT_LOAD_BALANCE</loadBalanceStrategy>
                    <name></name>
                    <selectedRelationships>Failure</selectedRelationships>
                    <selectedRelationships>Retry</selectedRelationships>
                    <source>
                        <groupId>d4d03836-ace6-321f-0000-000000000000</groupId>
                        <id>83e64d43-1a8b-374e-0000-000000000000</id>
                        <type>PROCESSOR</type>
                        <versionedComponentId>06a22c1f-b8e2-3dba-a49b-ab6bc8ec9ff4</versionedComponentId>
                    </source>
                    <zIndex>0</zIndex>
                </connections>
                <connections>
                    <id>ea628155-5942-3e19-0000-000000000000</id>
                    <parentGroupId>d4d03836-ace6-321f-0000-000000000000</parentGroupId>
                    <versionedComponentId>97327bfc-04e4-3d67-86d2-c6237202ef72</versionedComponentId>
                    <backPressureDataSizeThreshold>100 MB</backPressureDataSizeThreshold>
                    <backPressureObjectThreshold>10000</backPressureObjectThreshold>
                    <destination>
                        <groupId>d4d03836-ace6-321f-0000-000000000000</groupId>
                        <id>139614a5-9d36-3cc2-0000-000000000000</id>
                        <type>PROCESSOR</type>
                        <versionedComponentId>e88d616c-93f3-359e-bbf7-f626a1d38658</versionedComponentId>
                    </destination>
                    <flowFileExpiration>0 sec</flowFileExpiration>
                    <labelIndex>1</labelIndex>
                    <loadBalanceCompression>DO_NOT_COMPRESS</loadBalanceCompression>
                    <loadBalancePartitionAttribute></loadBalancePartitionAttribute>
                    <loadBalanceStatus>LOAD_BALANCE_NOT_CONFIGURED</loadBalanceStatus>
                    <loadBalanceStrategy>DO_NOT_LOAD_BALANCE</loadBalanceStrategy>
                    <name></name>
                    <selectedRelationships>success</selectedRelationships>
                    <source>
                        <groupId>d4d03836-ace6-321f-0000-000000000000</groupId>
                        <id>2a453ebf-c445-324a-0000-000000000000</id>
                        <type>PROCESSOR</type>
                        <versionedComponentId>ba209483-8036-3e7d-abef-1c53b0c886c2</versionedComponentId>
                    </source>
                    <zIndex>0</zIndex>
                </connections>
                <controllerServices>
                    <id>0e89410d-4980-3f62-0000-000000000000</id>
                    <parentGroupId>d4d03836-ace6-321f-0000-000000000000</parentGroupId>
                    <bulletinLevel>WARN</bulletinLevel>
                    <bundle>
                        <artifact>nifi-dbcp-service-nar</artifact>
                        <group>org.apache.nifi</group>
                        <version>1.18.0</version>
                    </bundle>
                    <comments></comments>
                    <descriptors>
                        <entry>
                            <key>Database Connection URL</key>
                            <value>
<name>Database Connection URL</name>
                            </value>
                        </entry>
                        <entry>